*line regulation
.include ../AE01.01.09.011.cir
.param ILOAD=15
.param VSOURCE=76
.dc V1 6 {VSOURCE} 0.001
.backanno
.op
